<?xml version="1.0" encoding="UTF-8"?>

<!-- generated on 2022-05-27 03:21:07 by Eclipse SUMO netedit Version 1.13.0
-->

<routes xmlns:xsi="http://www.w3.org/2001/XMLSchema-instance" xsi:noNamespaceSchemaLocation="http://sumo.dlr.de/xsd/routes_file.xsd">
    <!-- VTypes -->
    <vType id="bus_type" vClass="bus" personCapacity="70"/>
    <!-- Routes -->
    <route id="route_0" edges="gneE0 gneE1 gneE2 gneE3 gneE4 gneE5 gneE6 gneE7 gneE8 gneE9 gneE10 gneE11 gneE12 gneE13 gneE14 gneE15 gneE16 gneE17 gneE18 gneE19 gneE20 gneE21 gneE22 gneE23" color="yellow" repeat="10000">
        <stop busStop="busStop_gneE0_1_0" duration="30.00"/>
        <stop busStop="busStop_gneE1_1_0" duration="30.00"/>
        <stop busStop="busStop_gneE2_1_0" duration="30.00"/>
        <stop busStop="busStop_gneE3_1_0" duration="30.00"/>
        <stop busStop="busStop_gneE4_1_0" duration="30.00"/>
        <stop busStop="busStop_gneE5_1_0" duration="30.00"/>
        <stop busStop="busStop_gneE6_1_0" duration="30.00"/>
        <stop busStop="busStop_gneE7_1_0" duration="30.00"/>
        <stop busStop="busStop_gneE8_1_0" duration="30.00"/>
        <stop busStop="busStop_gneE9_1_0" duration="30.00"/>
        <stop busStop="busStop_gneE10_1_0" duration="30.00"/>
        <stop busStop="busStop_gneE11_1_0" duration="30.00"/>
        <stop busStop="busStop_gneE12_1_0" duration="30.00"/>
        <stop busStop="busStop_gneE13_1_0" duration="30.00"/>
        <stop busStop="busStop_gneE14_1_0" duration="30.00"/>
        <stop busStop="busStop_gneE15_1_0" duration="30.00"/>
        <stop busStop="busStop_gneE16_1_0" duration="30.00"/>
        <stop busStop="busStop_gneE17_1_0" duration="30.00"/>
        <stop busStop="busStop_gneE18_1_0" duration="30.00"/>
        <stop busStop="busStop_gneE19_1_0" duration="30.00"/>
        <stop busStop="busStop_gneE20_1_0" duration="30.00"/>
        <stop busStop="busStop_gneE21_1_0" duration="30.00"/>
        <stop busStop="busStop_gneE22_1_0" duration="30.00"/>
        <stop busStop="busStop_gneE23_1_0" duration="30.00"/>
    </route>
    <route id="route_1" edges="gneE1 gneE2 gneE3 gneE4 gneE5 gneE6 gneE7 gneE8 gneE9 gneE10 gneE11 gneE12 gneE13 gneE14 gneE15 gneE16 gneE17 gneE18 gneE19 gneE20 gneE21 gneE22 gneE23 gneE0" color="yellow" repeat="10000">
        <stop busStop="busStop_gneE1_1_0" duration="30.00"/>
        <stop busStop="busStop_gneE2_1_0" duration="30.00"/>
        <stop busStop="busStop_gneE3_1_0" duration="30.00"/>
        <stop busStop="busStop_gneE4_1_0" duration="30.00"/>
        <stop busStop="busStop_gneE5_1_0" duration="30.00"/>
        <stop busStop="busStop_gneE6_1_0" duration="30.00"/>
        <stop busStop="busStop_gneE7_1_0" duration="30.00"/>
        <stop busStop="busStop_gneE8_1_0" duration="30.00"/>
        <stop busStop="busStop_gneE9_1_0" duration="30.00"/>
        <stop busStop="busStop_gneE10_1_0" duration="30.00"/>
        <stop busStop="busStop_gneE11_1_0" duration="30.00"/>
        <stop busStop="busStop_gneE12_1_0" duration="30.00"/>
        <stop busStop="busStop_gneE13_1_0" duration="30.00"/>
        <stop busStop="busStop_gneE14_1_0" duration="30.00"/>
        <stop busStop="busStop_gneE15_1_0" duration="30.00"/>
        <stop busStop="busStop_gneE16_1_0" duration="30.00"/>
        <stop busStop="busStop_gneE17_1_0" duration="30.00"/>
        <stop busStop="busStop_gneE18_1_0" duration="30.00"/>
        <stop busStop="busStop_gneE19_1_0" duration="30.00"/>
        <stop busStop="busStop_gneE20_1_0" duration="30.00"/>
        <stop busStop="busStop_gneE21_1_0" duration="30.00"/>
        <stop busStop="busStop_gneE22_1_0" duration="30.00"/>
        <stop busStop="busStop_gneE23_1_0" duration="30.00"/>
        <stop busStop="busStop_gneE0_1_0" duration="30.00"/>
    </route>
    <route id="route_10" edges="gneE10 gneE11 gneE12 gneE13 gneE14 gneE15 gneE16 gneE17 gneE18 gneE19 gneE20 gneE21 gneE22 gneE23 gneE0 gneE1 gneE2 gneE3 gneE4 gneE5 gneE6 gneE7 gneE8 gneE9" color="yellow" repeat="10000">
        <stop busStop="busStop_gneE10_1_0" duration="30.00"/>
        <stop busStop="busStop_gneE11_1_0" duration="30.00"/>
        <stop busStop="busStop_gneE12_1_0" duration="30.00"/>
        <stop busStop="busStop_gneE13_1_0" duration="30.00"/>
        <stop busStop="busStop_gneE14_1_0" duration="30.00"/>
        <stop busStop="busStop_gneE15_1_0" duration="30.00"/>
        <stop busStop="busStop_gneE16_1_0" duration="30.00"/>
        <stop busStop="busStop_gneE17_1_0" duration="30.00"/>
        <stop busStop="busStop_gneE18_1_0" duration="30.00"/>
        <stop busStop="busStop_gneE19_1_0" duration="30.00"/>
        <stop busStop="busStop_gneE20_1_0" duration="30.00"/>
        <stop busStop="busStop_gneE21_1_0" duration="30.00"/>
        <stop busStop="busStop_gneE22_1_0" duration="30.00"/>
        <stop busStop="busStop_gneE23_1_0" duration="30.00"/>
        <stop busStop="busStop_gneE0_1_0" duration="30.00"/>
        <stop busStop="busStop_gneE1_1_0" duration="30.00"/>
        <stop busStop="busStop_gneE2_1_0" duration="30.00"/>
        <stop busStop="busStop_gneE3_1_0" duration="30.00"/>
        <stop busStop="busStop_gneE4_1_0" duration="30.00"/>
        <stop busStop="busStop_gneE5_1_0" duration="30.00"/>
        <stop busStop="busStop_gneE6_1_0" duration="30.00"/>
        <stop busStop="busStop_gneE7_1_0" duration="30.00"/>
        <stop busStop="busStop_gneE8_1_0" duration="30.00"/>
        <stop busStop="busStop_gneE9_1_0" duration="30.00"/>
    </route>
    <route id="route_11" edges="gneE11 gneE12 gneE13 gneE14 gneE15 gneE16 gneE17 gneE18 gneE19 gneE20 gneE21 gneE22 gneE23 gneE0 gneE1 gneE2 gneE3 gneE4 gneE5 gneE6 gneE7 gneE8 gneE9 gneE10" color="yellow" repeat="10000">
        <stop busStop="busStop_gneE11_1_0" duration="30.00"/>
        <stop busStop="busStop_gneE12_1_0" duration="30.00"/>
        <stop busStop="busStop_gneE13_1_0" duration="30.00"/>
        <stop busStop="busStop_gneE14_1_0" duration="30.00"/>
        <stop busStop="busStop_gneE15_1_0" duration="30.00"/>
        <stop busStop="busStop_gneE16_1_0" duration="30.00"/>
        <stop busStop="busStop_gneE17_1_0" duration="30.00"/>
        <stop busStop="busStop_gneE18_1_0" duration="30.00"/>
        <stop busStop="busStop_gneE19_1_0" duration="30.00"/>
        <stop busStop="busStop_gneE20_1_0" duration="30.00"/>
        <stop busStop="busStop_gneE21_1_0" duration="30.00"/>
        <stop busStop="busStop_gneE22_1_0" duration="30.00"/>
        <stop busStop="busStop_gneE23_1_0" duration="30.00"/>
        <stop busStop="busStop_gneE0_1_0" duration="30.00"/>
        <stop busStop="busStop_gneE1_1_0" duration="30.00"/>
        <stop busStop="busStop_gneE2_1_0" duration="30.00"/>
        <stop busStop="busStop_gneE3_1_0" duration="30.00"/>
        <stop busStop="busStop_gneE4_1_0" duration="30.00"/>
        <stop busStop="busStop_gneE5_1_0" duration="30.00"/>
        <stop busStop="busStop_gneE6_1_0" duration="30.00"/>
        <stop busStop="busStop_gneE7_1_0" duration="30.00"/>
        <stop busStop="busStop_gneE8_1_0" duration="30.00"/>
        <stop busStop="busStop_gneE9_1_0" duration="30.00"/>
        <stop busStop="busStop_gneE10_1_0" duration="30.00"/>
    </route>
    <route id="route_12" edges="gneE12 gneE13 gneE14 gneE15 gneE16 gneE17 gneE18 gneE19 gneE20 gneE21 gneE22 gneE23 gneE0 gneE1 gneE2 gneE3 gneE4 gneE5 gneE6 gneE7 gneE8 gneE9 gneE10 gneE11" color="yellow" repeat="10000">
        <stop busStop="busStop_gneE12_1_0" duration="30.00"/>
        <stop busStop="busStop_gneE13_1_0" duration="30.00"/>
        <stop busStop="busStop_gneE14_1_0" duration="30.00"/>
        <stop busStop="busStop_gneE15_1_0" duration="30.00"/>
        <stop busStop="busStop_gneE16_1_0" duration="30.00"/>
        <stop busStop="busStop_gneE17_1_0" duration="30.00"/>
        <stop busStop="busStop_gneE18_1_0" duration="30.00"/>
        <stop busStop="busStop_gneE19_1_0" duration="30.00"/>
        <stop busStop="busStop_gneE20_1_0" duration="30.00"/>
        <stop busStop="busStop_gneE21_1_0" duration="30.00"/>
        <stop busStop="busStop_gneE22_1_0" duration="30.00"/>
        <stop busStop="busStop_gneE23_1_0" duration="30.00"/>
        <stop busStop="busStop_gneE0_1_0" duration="30.00"/>
        <stop busStop="busStop_gneE1_1_0" duration="30.00"/>
        <stop busStop="busStop_gneE2_1_0" duration="30.00"/>
        <stop busStop="busStop_gneE3_1_0" duration="30.00"/>
        <stop busStop="busStop_gneE4_1_0" duration="30.00"/>
        <stop busStop="busStop_gneE5_1_0" duration="30.00"/>
        <stop busStop="busStop_gneE6_1_0" duration="30.00"/>
        <stop busStop="busStop_gneE7_1_0" duration="30.00"/>
        <stop busStop="busStop_gneE8_1_0" duration="30.00"/>
        <stop busStop="busStop_gneE9_1_0" duration="30.00"/>
        <stop busStop="busStop_gneE10_1_0" duration="30.00"/>
        <stop busStop="busStop_gneE11_1_0" duration="30.00"/>
    </route>
    <route id="route_13" edges="gneE13 gneE14 gneE15 gneE16 gneE17 gneE18 gneE19 gneE20 gneE21 gneE22 gneE23 gneE0 gneE1 gneE2 gneE3 gneE4 gneE5 gneE6 gneE7 gneE8 gneE9 gneE10 gneE11 gneE12" color="yellow" repeat="10000">
        <stop busStop="busStop_gneE13_1_0" duration="30.00"/>
        <stop busStop="busStop_gneE14_1_0" duration="30.00"/>
        <stop busStop="busStop_gneE15_1_0" duration="30.00"/>
        <stop busStop="busStop_gneE16_1_0" duration="30.00"/>
        <stop busStop="busStop_gneE17_1_0" duration="30.00"/>
        <stop busStop="busStop_gneE18_1_0" duration="30.00"/>
        <stop busStop="busStop_gneE19_1_0" duration="30.00"/>
        <stop busStop="busStop_gneE20_1_0" duration="30.00"/>
        <stop busStop="busStop_gneE21_1_0" duration="30.00"/>
        <stop busStop="busStop_gneE22_1_0" duration="30.00"/>
        <stop busStop="busStop_gneE23_1_0" duration="30.00"/>
        <stop busStop="busStop_gneE0_1_0" duration="30.00"/>
        <stop busStop="busStop_gneE1_1_0" duration="30.00"/>
        <stop busStop="busStop_gneE2_1_0" duration="30.00"/>
        <stop busStop="busStop_gneE3_1_0" duration="30.00"/>
        <stop busStop="busStop_gneE4_1_0" duration="30.00"/>
        <stop busStop="busStop_gneE5_1_0" duration="30.00"/>
        <stop busStop="busStop_gneE6_1_0" duration="30.00"/>
        <stop busStop="busStop_gneE7_1_0" duration="30.00"/>
        <stop busStop="busStop_gneE8_1_0" duration="30.00"/>
        <stop busStop="busStop_gneE9_1_0" duration="30.00"/>
        <stop busStop="busStop_gneE10_1_0" duration="30.00"/>
        <stop busStop="busStop_gneE11_1_0" duration="30.00"/>
        <stop busStop="busStop_gneE12_1_0" duration="30.00"/>
    </route>
    <route id="route_14" edges="gneE14 gneE15 gneE16 gneE17 gneE18 gneE19 gneE20 gneE21 gneE22 gneE23 gneE0 gneE1 gneE2 gneE3 gneE4 gneE5 gneE6 gneE7 gneE8 gneE9 gneE10 gneE11 gneE12 gneE13" color="yellow" repeat="10000">
        <stop busStop="busStop_gneE14_1_0" duration="30.00"/>
        <stop busStop="busStop_gneE15_1_0" duration="30.00"/>
        <stop busStop="busStop_gneE16_1_0" duration="30.00"/>
        <stop busStop="busStop_gneE17_1_0" duration="30.00"/>
        <stop busStop="busStop_gneE18_1_0" duration="30.00"/>
        <stop busStop="busStop_gneE19_1_0" duration="30.00"/>
        <stop busStop="busStop_gneE20_1_0" duration="30.00"/>
        <stop busStop="busStop_gneE21_1_0" duration="30.00"/>
        <stop busStop="busStop_gneE22_1_0" duration="30.00"/>
        <stop busStop="busStop_gneE23_1_0" duration="30.00"/>
        <stop busStop="busStop_gneE0_1_0" duration="30.00"/>
        <stop busStop="busStop_gneE1_1_0" duration="30.00"/>
        <stop busStop="busStop_gneE2_1_0" duration="30.00"/>
        <stop busStop="busStop_gneE3_1_0" duration="30.00"/>
        <stop busStop="busStop_gneE4_1_0" duration="30.00"/>
        <stop busStop="busStop_gneE5_1_0" duration="30.00"/>
        <stop busStop="busStop_gneE6_1_0" duration="30.00"/>
        <stop busStop="busStop_gneE7_1_0" duration="30.00"/>
        <stop busStop="busStop_gneE8_1_0" duration="30.00"/>
        <stop busStop="busStop_gneE9_1_0" duration="30.00"/>
        <stop busStop="busStop_gneE10_1_0" duration="30.00"/>
        <stop busStop="busStop_gneE11_1_0" duration="30.00"/>
        <stop busStop="busStop_gneE12_1_0" duration="30.00"/>
        <stop busStop="busStop_gneE13_1_0" duration="30.00"/>
    </route>
    <route id="route_15" edges="gneE15 gneE16 gneE17 gneE18 gneE19 gneE20 gneE21 gneE22 gneE23 gneE0 gneE1 gneE2 gneE3 gneE4 gneE5 gneE6 gneE7 gneE8 gneE9 gneE10 gneE11 gneE12 gneE13 gneE14" color="yellow" repeat="10000">
        <stop busStop="busStop_gneE15_1_0" duration="30.00"/>
        <stop busStop="busStop_gneE16_1_0" duration="30.00"/>
        <stop busStop="busStop_gneE17_1_0" duration="30.00"/>
        <stop busStop="busStop_gneE18_1_0" duration="30.00"/>
        <stop busStop="busStop_gneE19_1_0" duration="30.00"/>
        <stop busStop="busStop_gneE20_1_0" duration="30.00"/>
        <stop busStop="busStop_gneE21_1_0" duration="30.00"/>
        <stop busStop="busStop_gneE22_1_0" duration="30.00"/>
        <stop busStop="busStop_gneE23_1_0" duration="30.00"/>
        <stop busStop="busStop_gneE0_1_0" duration="30.00"/>
        <stop busStop="busStop_gneE1_1_0" duration="30.00"/>
        <stop busStop="busStop_gneE2_1_0" duration="30.00"/>
        <stop busStop="busStop_gneE3_1_0" duration="30.00"/>
        <stop busStop="busStop_gneE4_1_0" duration="30.00"/>
        <stop busStop="busStop_gneE5_1_0" duration="30.00"/>
        <stop busStop="busStop_gneE6_1_0" duration="30.00"/>
        <stop busStop="busStop_gneE7_1_0" duration="30.00"/>
        <stop busStop="busStop_gneE8_1_0" duration="30.00"/>
        <stop busStop="busStop_gneE9_1_0" duration="30.00"/>
        <stop busStop="busStop_gneE10_1_0" duration="30.00"/>
        <stop busStop="busStop_gneE11_1_0" duration="30.00"/>
        <stop busStop="busStop_gneE12_1_0" duration="30.00"/>
        <stop busStop="busStop_gneE13_1_0" duration="30.00"/>
        <stop busStop="busStop_gneE14_1_0" duration="30.00"/>
    </route>
    <route id="route_16" edges="gneE16 gneE17 gneE18 gneE19 gneE20 gneE21 gneE22 gneE23 gneE0 gneE1 gneE2 gneE3 gneE4 gneE5 gneE6 gneE7 gneE8 gneE9 gneE10 gneE11 gneE12 gneE13 gneE14 gneE15" color="yellow" repeat="10000">
        <stop busStop="busStop_gneE16_1_0" duration="30.00"/>
        <stop busStop="busStop_gneE17_1_0" duration="30.00"/>
        <stop busStop="busStop_gneE18_1_0" duration="30.00"/>
        <stop busStop="busStop_gneE19_1_0" duration="30.00"/>
        <stop busStop="busStop_gneE20_1_0" duration="30.00"/>
        <stop busStop="busStop_gneE21_1_0" duration="30.00"/>
        <stop busStop="busStop_gneE22_1_0" duration="30.00"/>
        <stop busStop="busStop_gneE23_1_0" duration="30.00"/>
        <stop busStop="busStop_gneE0_1_0" duration="30.00"/>
        <stop busStop="busStop_gneE1_1_0" duration="30.00"/>
        <stop busStop="busStop_gneE2_1_0" duration="30.00"/>
        <stop busStop="busStop_gneE3_1_0" duration="30.00"/>
        <stop busStop="busStop_gneE4_1_0" duration="30.00"/>
        <stop busStop="busStop_gneE5_1_0" duration="30.00"/>
        <stop busStop="busStop_gneE6_1_0" duration="30.00"/>
        <stop busStop="busStop_gneE7_1_0" duration="30.00"/>
        <stop busStop="busStop_gneE8_1_0" duration="30.00"/>
        <stop busStop="busStop_gneE9_1_0" duration="30.00"/>
        <stop busStop="busStop_gneE10_1_0" duration="30.00"/>
        <stop busStop="busStop_gneE11_1_0" duration="30.00"/>
        <stop busStop="busStop_gneE12_1_0" duration="30.00"/>
        <stop busStop="busStop_gneE13_1_0" duration="30.00"/>
        <stop busStop="busStop_gneE14_1_0" duration="30.00"/>
        <stop busStop="busStop_gneE15_1_0" duration="30.00"/>
    </route>
    <route id="route_17" edges="gneE17 gneE18 gneE19 gneE20 gneE21 gneE22 gneE23 gneE0 gneE1 gneE2 gneE3 gneE4 gneE5 gneE6 gneE7 gneE8 gneE9 gneE10 gneE11 gneE12 gneE13 gneE14 gneE15 gneE16" color="yellow" repeat="10000">
        <stop busStop="busStop_gneE17_1_0" duration="30.00"/>
        <stop busStop="busStop_gneE18_1_0" duration="30.00"/>
        <stop busStop="busStop_gneE19_1_0" duration="30.00"/>
        <stop busStop="busStop_gneE20_1_0" duration="30.00"/>
        <stop busStop="busStop_gneE21_1_0" duration="30.00"/>
        <stop busStop="busStop_gneE22_1_0" duration="30.00"/>
        <stop busStop="busStop_gneE23_1_0" duration="30.00"/>
        <stop busStop="busStop_gneE0_1_0" duration="30.00"/>
        <stop busStop="busStop_gneE1_1_0" duration="30.00"/>
        <stop busStop="busStop_gneE2_1_0" duration="30.00"/>
        <stop busStop="busStop_gneE3_1_0" duration="30.00"/>
        <stop busStop="busStop_gneE4_1_0" duration="30.00"/>
        <stop busStop="busStop_gneE5_1_0" duration="30.00"/>
        <stop busStop="busStop_gneE6_1_0" duration="30.00"/>
        <stop busStop="busStop_gneE7_1_0" duration="30.00"/>
        <stop busStop="busStop_gneE8_1_0" duration="30.00"/>
        <stop busStop="busStop_gneE9_1_0" duration="30.00"/>
        <stop busStop="busStop_gneE10_1_0" duration="30.00"/>
        <stop busStop="busStop_gneE11_1_0" duration="30.00"/>
        <stop busStop="busStop_gneE12_1_0" duration="30.00"/>
        <stop busStop="busStop_gneE13_1_0" duration="30.00"/>
        <stop busStop="busStop_gneE14_1_0" duration="30.00"/>
        <stop busStop="busStop_gneE15_1_0" duration="30.00"/>
        <stop busStop="busStop_gneE16_1_0" duration="30.00"/>
    </route>
    <route id="route_18" edges="gneE18 gneE19 gneE20 gneE21 gneE22 gneE23 gneE0 gneE1 gneE2 gneE3 gneE4 gneE5 gneE6 gneE7 gneE8 gneE9 gneE10 gneE11 gneE12 gneE13 gneE14 gneE15 gneE16 gneE17" color="yellow" repeat="10000">
        <stop busStop="busStop_gneE18_1_0" duration="30.00"/>
        <stop busStop="busStop_gneE19_1_0" duration="30.00"/>
        <stop busStop="busStop_gneE20_1_0" duration="30.00"/>
        <stop busStop="busStop_gneE21_1_0" duration="30.00"/>
        <stop busStop="busStop_gneE22_1_0" duration="30.00"/>
        <stop busStop="busStop_gneE23_1_0" duration="30.00"/>
        <stop busStop="busStop_gneE0_1_0" duration="30.00"/>
        <stop busStop="busStop_gneE1_1_0" duration="30.00"/>
        <stop busStop="busStop_gneE2_1_0" duration="30.00"/>
        <stop busStop="busStop_gneE3_1_0" duration="30.00"/>
        <stop busStop="busStop_gneE4_1_0" duration="30.00"/>
        <stop busStop="busStop_gneE5_1_0" duration="30.00"/>
        <stop busStop="busStop_gneE6_1_0" duration="30.00"/>
        <stop busStop="busStop_gneE7_1_0" duration="30.00"/>
        <stop busStop="busStop_gneE8_1_0" duration="30.00"/>
        <stop busStop="busStop_gneE9_1_0" duration="30.00"/>
        <stop busStop="busStop_gneE10_1_0" duration="30.00"/>
        <stop busStop="busStop_gneE11_1_0" duration="30.00"/>
        <stop busStop="busStop_gneE12_1_0" duration="30.00"/>
        <stop busStop="busStop_gneE13_1_0" duration="30.00"/>
        <stop busStop="busStop_gneE14_1_0" duration="30.00"/>
        <stop busStop="busStop_gneE15_1_0" duration="30.00"/>
        <stop busStop="busStop_gneE16_1_0" duration="30.00"/>
        <stop busStop="busStop_gneE17_1_0" duration="30.00"/>
    </route>
    <route id="route_19" edges="gneE19 gneE20 gneE21 gneE22 gneE23 gneE0 gneE1 gneE2 gneE3 gneE4 gneE5 gneE6 gneE7 gneE8 gneE9 gneE10 gneE11 gneE12 gneE13 gneE14 gneE15 gneE16 gneE17 gneE18" color="yellow" repeat="10000">
        <stop busStop="busStop_gneE19_1_0" duration="30.00"/>
        <stop busStop="busStop_gneE20_1_0" duration="30.00"/>
        <stop busStop="busStop_gneE21_1_0" duration="30.00"/>
        <stop busStop="busStop_gneE22_1_0" duration="30.00"/>
        <stop busStop="busStop_gneE23_1_0" duration="30.00"/>
        <stop busStop="busStop_gneE0_1_0" duration="30.00"/>
        <stop busStop="busStop_gneE1_1_0" duration="30.00"/>
        <stop busStop="busStop_gneE2_1_0" duration="30.00"/>
        <stop busStop="busStop_gneE3_1_0" duration="30.00"/>
        <stop busStop="busStop_gneE4_1_0" duration="30.00"/>
        <stop busStop="busStop_gneE5_1_0" duration="30.00"/>
        <stop busStop="busStop_gneE6_1_0" duration="30.00"/>
        <stop busStop="busStop_gneE7_1_0" duration="30.00"/>
        <stop busStop="busStop_gneE8_1_0" duration="30.00"/>
        <stop busStop="busStop_gneE9_1_0" duration="30.00"/>
        <stop busStop="busStop_gneE10_1_0" duration="30.00"/>
        <stop busStop="busStop_gneE11_1_0" duration="30.00"/>
        <stop busStop="busStop_gneE12_1_0" duration="30.00"/>
        <stop busStop="busStop_gneE13_1_0" duration="30.00"/>
        <stop busStop="busStop_gneE14_1_0" duration="30.00"/>
        <stop busStop="busStop_gneE15_1_0" duration="30.00"/>
        <stop busStop="busStop_gneE16_1_0" duration="30.00"/>
        <stop busStop="busStop_gneE17_1_0" duration="30.00"/>
        <stop busStop="busStop_gneE18_1_0" duration="30.00"/>
    </route>
    <route id="route_2" edges="gneE2 gneE3 gneE4 gneE5 gneE6 gneE7 gneE8 gneE9 gneE10 gneE11 gneE12 gneE13 gneE14 gneE15 gneE16 gneE17 gneE18 gneE19 gneE20 gneE21 gneE22 gneE23 gneE0 gneE1" color="yellow" repeat="10000">
        <stop busStop="busStop_gneE2_1_0" duration="30.00"/>
        <stop busStop="busStop_gneE3_1_0" duration="30.00"/>
        <stop busStop="busStop_gneE4_1_0" duration="30.00"/>
        <stop busStop="busStop_gneE5_1_0" duration="30.00"/>
        <stop busStop="busStop_gneE6_1_0" duration="30.00"/>
        <stop busStop="busStop_gneE7_1_0" duration="30.00"/>
        <stop busStop="busStop_gneE8_1_0" duration="30.00"/>
        <stop busStop="busStop_gneE9_1_0" duration="30.00"/>
        <stop busStop="busStop_gneE10_1_0" duration="30.00"/>
        <stop busStop="busStop_gneE11_1_0" duration="30.00"/>
        <stop busStop="busStop_gneE12_1_0" duration="30.00"/>
        <stop busStop="busStop_gneE13_1_0" duration="30.00"/>
        <stop busStop="busStop_gneE14_1_0" duration="30.00"/>
        <stop busStop="busStop_gneE15_1_0" duration="30.00"/>
        <stop busStop="busStop_gneE16_1_0" duration="30.00"/>
        <stop busStop="busStop_gneE17_1_0" duration="30.00"/>
        <stop busStop="busStop_gneE18_1_0" duration="30.00"/>
        <stop busStop="busStop_gneE19_1_0" duration="30.00"/>
        <stop busStop="busStop_gneE20_1_0" duration="30.00"/>
        <stop busStop="busStop_gneE21_1_0" duration="30.00"/>
        <stop busStop="busStop_gneE22_1_0" duration="30.00"/>
        <stop busStop="busStop_gneE23_1_0" duration="30.00"/>
        <stop busStop="busStop_gneE0_1_0" duration="30.00"/>
        <stop busStop="busStop_gneE1_1_0" duration="30.00"/>
    </route>
    <route id="route_20" edges="gneE20 gneE21 gneE22 gneE23 gneE0 gneE1 gneE2 gneE3 gneE4 gneE5 gneE6 gneE7 gneE8 gneE9 gneE10 gneE11 gneE12 gneE13 gneE14 gneE15 gneE16 gneE17 gneE18 gneE19" color="yellow" repeat="10000">
        <stop busStop="busStop_gneE20_1_0" duration="30.00"/>
        <stop busStop="busStop_gneE21_1_0" duration="30.00"/>
        <stop busStop="busStop_gneE22_1_0" duration="30.00"/>
        <stop busStop="busStop_gneE23_1_0" duration="30.00"/>
        <stop busStop="busStop_gneE0_1_0" duration="30.00"/>
        <stop busStop="busStop_gneE1_1_0" duration="30.00"/>
        <stop busStop="busStop_gneE2_1_0" duration="30.00"/>
        <stop busStop="busStop_gneE3_1_0" duration="30.00"/>
        <stop busStop="busStop_gneE4_1_0" duration="30.00"/>
        <stop busStop="busStop_gneE5_1_0" duration="30.00"/>
        <stop busStop="busStop_gneE6_1_0" duration="30.00"/>
        <stop busStop="busStop_gneE7_1_0" duration="30.00"/>
        <stop busStop="busStop_gneE8_1_0" duration="30.00"/>
        <stop busStop="busStop_gneE9_1_0" duration="30.00"/>
        <stop busStop="busStop_gneE10_1_0" duration="30.00"/>
        <stop busStop="busStop_gneE11_1_0" duration="30.00"/>
        <stop busStop="busStop_gneE12_1_0" duration="30.00"/>
        <stop busStop="busStop_gneE13_1_0" duration="30.00"/>
        <stop busStop="busStop_gneE14_1_0" duration="30.00"/>
        <stop busStop="busStop_gneE15_1_0" duration="30.00"/>
        <stop busStop="busStop_gneE16_1_0" duration="30.00"/>
        <stop busStop="busStop_gneE17_1_0" duration="30.00"/>
        <stop busStop="busStop_gneE18_1_0" duration="30.00"/>
        <stop busStop="busStop_gneE19_1_0" duration="30.00"/>
    </route>
    <route id="route_21" edges="gneE21 gneE22 gneE23 gneE0 gneE1 gneE2 gneE3 gneE4 gneE5 gneE6 gneE7 gneE8 gneE9 gneE10 gneE11 gneE12 gneE13 gneE14 gneE15 gneE16 gneE17 gneE18 gneE19 gneE20" color="yellow" repeat="10000">
        <stop busStop="busStop_gneE21_1_0" duration="30.00"/>
        <stop busStop="busStop_gneE22_1_0" duration="30.00"/>
        <stop busStop="busStop_gneE23_1_0" duration="30.00"/>
        <stop busStop="busStop_gneE0_1_0" duration="30.00"/>
        <stop busStop="busStop_gneE1_1_0" duration="30.00"/>
        <stop busStop="busStop_gneE2_1_0" duration="30.00"/>
        <stop busStop="busStop_gneE3_1_0" duration="30.00"/>
        <stop busStop="busStop_gneE4_1_0" duration="30.00"/>
        <stop busStop="busStop_gneE5_1_0" duration="30.00"/>
        <stop busStop="busStop_gneE6_1_0" duration="30.00"/>
        <stop busStop="busStop_gneE7_1_0" duration="30.00"/>
        <stop busStop="busStop_gneE8_1_0" duration="30.00"/>
        <stop busStop="busStop_gneE9_1_0" duration="30.00"/>
        <stop busStop="busStop_gneE10_1_0" duration="30.00"/>
        <stop busStop="busStop_gneE11_1_0" duration="30.00"/>
        <stop busStop="busStop_gneE12_1_0" duration="30.00"/>
        <stop busStop="busStop_gneE13_1_0" duration="30.00"/>
        <stop busStop="busStop_gneE14_1_0" duration="30.00"/>
        <stop busStop="busStop_gneE15_1_0" duration="30.00"/>
        <stop busStop="busStop_gneE16_1_0" duration="30.00"/>
        <stop busStop="busStop_gneE17_1_0" duration="30.00"/>
        <stop busStop="busStop_gneE18_1_0" duration="30.00"/>
        <stop busStop="busStop_gneE19_1_0" duration="30.00"/>
        <stop busStop="busStop_gneE20_1_0" duration="30.00"/>
    </route>
    <route id="route_22" edges="gneE22 gneE23 gneE0 gneE1 gneE2 gneE3 gneE4 gneE5 gneE6 gneE7 gneE8 gneE9 gneE10 gneE11 gneE12 gneE13 gneE14 gneE15 gneE16 gneE17 gneE18 gneE19 gneE20 gneE21" color="yellow" repeat="10000">
        <stop busStop="busStop_gneE22_1_0" duration="30.00"/>
        <stop busStop="busStop_gneE23_1_0" duration="30.00"/>
        <stop busStop="busStop_gneE0_1_0" duration="30.00"/>
        <stop busStop="busStop_gneE1_1_0" duration="30.00"/>
        <stop busStop="busStop_gneE2_1_0" duration="30.00"/>
        <stop busStop="busStop_gneE3_1_0" duration="30.00"/>
        <stop busStop="busStop_gneE4_1_0" duration="30.00"/>
        <stop busStop="busStop_gneE5_1_0" duration="30.00"/>
        <stop busStop="busStop_gneE6_1_0" duration="30.00"/>
        <stop busStop="busStop_gneE7_1_0" duration="30.00"/>
        <stop busStop="busStop_gneE8_1_0" duration="30.00"/>
        <stop busStop="busStop_gneE9_1_0" duration="30.00"/>
        <stop busStop="busStop_gneE10_1_0" duration="30.00"/>
        <stop busStop="busStop_gneE11_1_0" duration="30.00"/>
        <stop busStop="busStop_gneE12_1_0" duration="30.00"/>
        <stop busStop="busStop_gneE13_1_0" duration="30.00"/>
        <stop busStop="busStop_gneE14_1_0" duration="30.00"/>
        <stop busStop="busStop_gneE15_1_0" duration="30.00"/>
        <stop busStop="busStop_gneE16_1_0" duration="30.00"/>
        <stop busStop="busStop_gneE17_1_0" duration="30.00"/>
        <stop busStop="busStop_gneE18_1_0" duration="30.00"/>
        <stop busStop="busStop_gneE19_1_0" duration="30.00"/>
        <stop busStop="busStop_gneE20_1_0" duration="30.00"/>
        <stop busStop="busStop_gneE21_1_0" duration="30.00"/>
    </route>
    <route id="route_23" edges="gneE23 gneE0 gneE1 gneE2 gneE3 gneE4 gneE5 gneE6 gneE7 gneE8 gneE9 gneE10 gneE11 gneE12 gneE13 gneE14 gneE15 gneE16 gneE17 gneE18 gneE19 gneE20 gneE21 gneE22" color="yellow" repeat="10000">
        <stop busStop="busStop_gneE23_1_0" duration="30.00"/>
        <stop busStop="busStop_gneE0_1_0" duration="30.00"/>
        <stop busStop="busStop_gneE1_1_0" duration="30.00"/>
        <stop busStop="busStop_gneE2_1_0" duration="30.00"/>
        <stop busStop="busStop_gneE3_1_0" duration="30.00"/>
        <stop busStop="busStop_gneE4_1_0" duration="30.00"/>
        <stop busStop="busStop_gneE5_1_0" duration="30.00"/>
        <stop busStop="busStop_gneE6_1_0" duration="30.00"/>
        <stop busStop="busStop_gneE7_1_0" duration="30.00"/>
        <stop busStop="busStop_gneE8_1_0" duration="30.00"/>
        <stop busStop="busStop_gneE9_1_0" duration="30.00"/>
        <stop busStop="busStop_gneE10_1_0" duration="30.00"/>
        <stop busStop="busStop_gneE11_1_0" duration="30.00"/>
        <stop busStop="busStop_gneE12_1_0" duration="30.00"/>
        <stop busStop="busStop_gneE13_1_0" duration="30.00"/>
        <stop busStop="busStop_gneE14_1_0" duration="30.00"/>
        <stop busStop="busStop_gneE15_1_0" duration="30.00"/>
        <stop busStop="busStop_gneE16_1_0" duration="30.00"/>
        <stop busStop="busStop_gneE17_1_0" duration="30.00"/>
        <stop busStop="busStop_gneE18_1_0" duration="30.00"/>
        <stop busStop="busStop_gneE19_1_0" duration="30.00"/>
        <stop busStop="busStop_gneE20_1_0" duration="30.00"/>
        <stop busStop="busStop_gneE21_1_0" duration="30.00"/>
        <stop busStop="busStop_gneE22_1_0" duration="30.00"/>
    </route>